           3
 ENERGY=  -17.100370829052817                0
 O    5.2936930195109655        5.3930050816548114        5.2907705402507537     
 H    4.5408355577157753        4.7629519409606509        5.2919343027364079     
 H    6.0857195195744334        4.8128375351643999        5.2917674868444733     
           3
 ENERGY=  -17.100370850763948                1
 O    5.2936664901434698        5.3929620637437372        5.2907035156101108     
 H    4.5407746673552580        4.7627973515772277        5.2919351668668622     
 H    6.0857005657549825        4.8128188911742997        5.2917683827005950     
           3
 ENERGY=  -17.100370932850566                2
 O    5.2932402399438327        5.3925436413615380        5.2903510326554057     
 H    4.5407071856806960        4.7622006417527745        5.2919396436202213     
 H    6.0856388242880186        4.8126970766434143        5.2917727759399797     
           3
 ENERGY=  -17.100371018804513                3
 O    5.2928204924542346        5.3920629474309445        5.2899462471737744     
 H    4.5405868250441941        4.7614531017141299        5.2919459431137676     
 H    6.0855201858406813        4.8125809648116959        5.2917774093166576     
           3
 ENERGY=  -17.100371302118369                4
 O    5.2910860990892949        5.3900237993224538        5.2882251655183845     
 H    4.5400225557518077        4.7580919565267417        5.2919772324936982     
 H    6.0849280290612322        4.8120868750747876        5.2917970973357162     
           3
 ENERGY=  -17.100371372655008                5
 O    5.2897881538618865        5.3886852900537354        5.2876547093715676     
 H    4.5400705170188180        4.7552826237904409        5.2920338509576954     
 H    6.0839812561659574        4.8116985077466330        5.2918273345590920     
           3
 ENERGY=  -17.100371455193486                6
 O    5.2893365729081996        5.3883324087661562        5.2873313432194013     
 H    4.5397606261671868        4.7542864395456892        5.2920479185294669     
 H    6.0839958810867021        4.8115080598615325        5.2918356469024666     
           3
 ENERGY=  -17.100371506562478                7
 O    5.2897222879566357        5.3886269633724808        5.2876121052713074     
 H    4.5398103658007205        4.7550026785628194        5.2920383841253198     
 H    6.0841368758302972        4.8116682819434349        5.2918305881299359     
           3
 ENERGY=  -17.100371520089677                8
 O    5.2897498275455952        5.3885755997178553        5.2877196871092949     
 H    4.5397654408011254        4.7549893687709623        5.2920418901397408     
 H    6.0841581069877053        4.8117202057564725        5.2918338742046851     
