           2
 ENERGY=  -7.2356213079411642                0
 Si   0.0000000000000000        0.0000000000000000        0.0000000000000000     
 Si  -1.3577562847905849        1.3577562847905849        1.3577562847905849     
           2
 ENERGY=  -6.8782271612569952                1
 Si   2.2365745877894221       -1.3669331215329945       -2.2365758289697557     
 Si  -3.5943248085202657        2.7246937931859958        3.5943263716512304     
           2
 ENERGY=  -7.3336484249108507                2
 Si   1.0652041097370126       -1.0651860610882484       -1.0652101025061080     
 Si  -2.4229604385283130        2.4229422353066363        2.4229665726101230     
