           6
 ENERGY=  -34.214842952102934                0
 O    1.0877417341943509        2.0531852171021416       0.52563938540582267     
 O   0.24166799578896286        1.9711420186152162       -2.0848074790027917     
 H    9.1049226727463878E-002   2.9054533625626879       -2.3506547864586391     
 H    1.0183487179559350        1.6852805675934799       -2.6151861708615649     
 H   0.73385256994463521        1.9840567769109683      -0.40777531251766341     
 H   0.46493274087412667        1.5101726451441866        1.0538205987055043     
           6
 ENERGY=  -34.214844604778420                1
 O    1.0872582173542851        2.0527534792395361       0.52592538040700909     
 O   0.24183816943861808        1.9714025980438168       -2.0856734747480976     
 H    9.0946610010102152E-002   2.9060077845780610       -2.3511566802976454     
 H    1.0191666582883663        1.6851645956365746       -2.6156470938308631     
 H   0.73416104524787795        1.9843197817082663      -0.40719531647690560     
 H   0.46528873904569412        1.5099302801004177        1.0547905306354519     
           6
 ENERGY=  -34.214844562856065                2
 O    1.0867743373193766        2.0515939154380192       0.52881376379402556     
 O   0.24316145089202570        1.9734880359866425       -2.0906064341756361     
 H    9.1215418989252062E-002   2.9074961356270541       -2.3539656116796035     
 H    1.0226448392643648        1.6855982924152999       -2.6178191038646403     
 H   0.73451106578072378        1.9850356046039923      -0.40539322452304416     
 H   0.46626012604079170        1.5079837584595914        1.0597855341352505     
           6
 ENERGY=  -34.214847960828173                3
 O    1.0868953649440829        2.0517537057342112       0.52846010240275998     
 O   0.24348203250002753        1.9723840744869288       -2.0895588013617838     
 H    9.1474813306363797E-002   2.9076753400734483       -2.3540931034419210     
 H    1.0217346056117289        1.6861869253737116       -2.6173965874211809     
 H   0.73420640648447399        1.9846917062578469      -0.40518805656040352     
 H   0.46625424400447057        1.5083390986666181        1.0586898673267502     
           6
 ENERGY=  -34.214849083255771                4
 O    1.0869846556898672        2.0516409810487057       0.52901357650007597     
 O   0.24380574551718348        1.9726997601415017       -2.0900744760813530     
 H    9.1837314342519141E-002   2.9077182453305963       -2.3548226365847245     
 H    1.0222126580475006        1.6866848927649558       -2.6178197482759806     
 H   0.73401504358947234        1.9845907643858485      -0.40462828035587595     
 H   0.46643137796876977        1.5080172075042728        1.0592363234965823     
           6
 ENERGY=  -34.214852691661427                5
 O    1.0874887719474720        2.0507153426063076       0.53270790367618970     
 O   0.24651991892444011        1.9748713601023633       -2.0933614015505357     
 H    9.4572582142344208E-002   2.9084220840151005       -2.3605019695009184     
 H    1.0258801733367746        1.6905039528643850       -2.6210103188470906     
 H   0.73262669517410683        1.9837688732479397      -0.40003763515174279     
 H   0.46786760564573293        1.5056636754432207        1.0631182569615307     
           6
 ENERGY=  -34.214853481203626                6
 O    1.0870660038660362        2.0502934187408237       0.53294262405707993     
 O   0.24726663464121429        1.9753153591341184       -2.0925856761363675     
 H    9.4792211648798669E-002   2.9085561069651260       -2.3610482808634417     
 H    1.0264537271152820        1.6908043262502874       -2.6212606805624712     
 H   0.73235331375254442        1.9835569258775578      -0.39987589500676540     
 H   0.46835433536692289        1.5056947779621068        1.0629455709646483     
           6
 ENERGY=  -34.214854546416888                7
 O    1.0871214657000621        2.0503423748622098       0.53265530821579976     
 O   0.24781350058482826        1.9754713267476007       -2.0919675711377446     
 H    9.4939236513116393E-002   2.9085320094932290       -2.3612539185463577     
 H    1.0264897919984468        1.6910457114654665       -2.6212125942757059     
 H   0.73217065652302193        1.9833780605042031      -0.39976879556966211     
 H   0.46831945825961974        1.5055587485064239        1.0628049267863331     
           6
 ENERGY=  -34.214856359172011                8
 O    1.0871628608914905        2.0501254818738581       0.53264626401619442     
 O   0.25028370778719505        1.9765191693876500       -2.0905373117153525     
 H    9.5588896588316777E-002   2.9087451296213147       -2.3626451367318628     
 H    1.0273425602301109        1.6921131669709393       -2.6214331624017650     
 H   0.73139267041908018        1.9827873923884860      -0.39928520278960544     
 H   0.46862181837849670        1.5048220484965176        1.0630335792414227     
           6
 ENERGY=  -34.214857926613881                9
 O    1.0870135888283055        2.0496439226604837       0.53274866472363902     
 O   0.25335348497578652        1.9784375624668318       -2.0890734756812210     
 H    9.6246309004739294E-002   2.9090396764900746       -2.3642876727643776     
 H    1.0289801155795495        1.6931126815641850       -2.6218449011899887     
 H   0.73062571446100844        1.9822380974920273      -0.39879476720284868     
 H   0.46908627925127072        1.5037644682626845        1.0636973991675986     
           6
 ENERGY=  -34.214859516605650               10
 O    1.0866028582121545        2.0480755600338059       0.53485679441549960     
 O   0.25985104755800403        1.9819564615752925       -2.0888012876528999     
 H    9.7855978281079503E-002   2.9106815417083536       -2.3688611059821052     
 H    1.0330161885274525        1.6957496408790880       -2.6232158755160331     
 H   0.72923260011179836        1.9814373217998720      -0.39693481437970274     
 H   0.47058087847967650        1.5011950619498948        1.0664581380761797     
           6
 ENERGY=  -34.214861137058350               11
 O    1.0864782509435298        2.0477705926303602       0.53510885717616730     
 O   0.26013379078263116        1.9826775265727659       -2.0893551813417321     
 H    9.7889467291711621E-002   2.9110161320132915       -2.3691856534482394     
 H    1.0340624227925261        1.6956850058315491       -2.6234564812112771     
 H   0.72948180620865832        1.9816597875044715      -0.39672813215050506     
 H   0.47067172657352579        1.5006858617652290        1.0671763362143423     
           6
 ENERGY=  -34.214861570371745               12
 O    1.0861290035481446        2.0466893976882758       0.53634262471634797     
 O   0.26290610505474865        1.9848293201436034       -2.0902771101921127     
 H    9.8582348936001291E-002   2.9121585714730087       -2.3713543377605033     
 H    1.0369222256593831        1.6966715188451897       -2.6242141071429570     
 H   0.72939280354995473        1.9817236979153825      -0.39565295215621926     
 H   0.47137914872579689        1.4990513174523084        1.0691396071264501     
           6
 ENERGY=  -34.214862177558672               13
 O    1.0862059508791504        2.0467819386727886       0.53592643119462779     
 O   0.26178960234710663        1.9840452917592684       -2.0904320630334334     
 H    9.8415736301055282E-002   2.9120622458483703       -2.3704023120407616     
 H    1.0362715259046302        1.6963670753019373       -2.6235155964493164     
 H   0.72995560557985928        1.9820553985514915      -0.39603983532195636     
 H   0.47102128412918276        1.4993657322856351        1.0683085820793767     
           6
 ENERGY=  -34.214862879449647               14
 O    1.0865770651937301        2.0469248198077827       0.53525886797008593     
 O   0.25937255692988048        1.9825019996979492       -2.0905369466769299     
 H    9.8212510701454717E-002   2.9118529479421680       -2.3683291744963797     
 H    1.0351443460597800        1.6958398785148490       -2.6218597364584419     
 H   0.73114181787163890        1.9827822766424179      -0.39717920709858939     
 H   0.47016718778861283        1.4998696328891752        1.0662823456311505     
           6
 ENERGY=  -34.214864051570920               15
 O    1.0870355941998930        2.0463788539050416       0.53530791591939653     
 O   0.25989543117787878        1.9828714618940002       -2.0903668987560224     
 H    9.9064197984510688E-002   2.9123229154398338       -2.3684431976242215     
 H    1.0363200537384718        1.6968069170131730       -2.6207565132186992     
 H   0.73182447127684036        1.9831807252143130      -0.39716419913663431     
 H   0.46974454123337905        1.4987719883159727        1.0654466866529553     
           6
 ENERGY=  -34.214869562302574               16
 O    1.0894594766985572        2.0411262558376149       0.53752766487600712     
 O   0.26685987226751939        1.9880075148217762       -2.0898356346744582     
 H   0.10574419155888978        2.9166326754412957       -2.3719178995961632     
 H    1.0475328179659822        1.7046488710260645       -2.6143730464550203     
 H   0.73597705148851689        1.9857108485700392      -0.39583270240066015     
 H   0.46817316521941266        1.4898737548328178        1.0616311004637777     
           6
 ENERGY=  -34.214875890918961               17
 O    1.0912077435217165        2.0364767157754313       0.53919425998241188     
 O   0.27044780564058601        1.9915369680027974       -2.0896292513619752     
 H   0.11104335101909502        2.9198601506359636       -2.3731188041736142     
 H    1.0563526899932945        1.7104837889729199       -2.6081030182534772     
 H   0.74030902044417068        1.9883848512562721      -0.39548426352231181     
 H   0.46670034523539794        1.4832380441493818        1.0567713377946650     
           6
 ENERGY=  -34.214880136632523               18
 O    1.0948787208588799        2.0248418536379251       0.54523978367364734     
 O   0.28440468171794869        2.0024478489436452       -2.0901145475154683     
 H   0.12262600173053465        2.9289609081502745       -2.3788681920755894     
 H    1.0789253406177934        1.7239699036993583       -2.5957025870344133     
 H   0.74738624773567863        1.9933036198880378      -0.39404597884992348     
 H   0.46495713205554740        1.4666859640037015        1.0490393063020593     
           6
 ENERGY=  -34.214885660873335               19
 O    1.0944022313879018        2.0239225038859487       0.54465307366214799     
 O   0.28472617585341703        2.0035403391633069       -2.0900438849408665     
 H   0.12321196756761106        2.9292613524859719       -2.3791504741503564     
 H    1.0807074742141216        1.7244335519229004       -2.5955228684911984     
 H   0.74803723880131912        1.9935990642018333      -0.39290782758429954     
 H   0.46513616797979151        1.4659156033038412        1.0487788854604860     
           6
 ENERGY=  -34.214886077806817               20
 O    1.0939656386133758        2.0247205375534989       0.54432489409255780     
 O   0.28440073058111853        2.0031276131950735       -2.0901486175812409     
 H   0.12204914270503871        2.9286930661691368       -2.3790434754443943     
 H    1.0791401048257707        1.7231645490872056       -2.5970220978572285     
 H   0.74687166558073947        1.9929483136218513      -0.39285803235195760     
 H   0.46558583192655645        1.4671570196050847        1.0500524620810019     
           6
 ENERGY=  -34.214886498166472               21
 O    1.0942419976370583        2.0231840717145833       0.54421814513997424     
 O   0.28615006981730801        2.0042534792731184       -2.0899807067673848     
 H   0.12254135455107038        2.9299417348416550       -2.3792513069031678     
 H    1.0815205723614623        1.7237023643025542       -2.5966281154531341     
 H   0.74613202193797612        1.9930031816057341      -0.39289434337843926     
 H   0.46565973338238947        1.4653362229187048        1.0500583606740528     
           6
 ENERGY=  -34.214887132170148               22
 O    1.0941769026875074        2.0226039335361783       0.54403632884274800     
 O   0.28676125453257695        2.0045914234282809       -2.0900906383736140     
 H   0.12272247356682482        2.9300178060663873       -2.3791364525786660     
 H    1.0818118463483568        1.7239362896710508       -2.5964059930517589     
 H   0.74581499705795506        1.9929682819197267      -0.39285991687870730     
 H   0.46578464738520320        1.4649283700647109        1.0499756566893501     
           6
 ENERGY=  -34.214887435692503               23
 O    1.0948160581209176        2.0189812054438345       0.54409206755854977     
 O   0.28997233516928528        2.0069329265328206       -2.0900833165536206     
 H   0.12524901889463952        2.9318191848947301       -2.3793006933143772     
 H    1.0864960144775568        1.7267800554752719       -2.5935357349460886     
 H   0.74623214432847040        1.9938105107773949      -0.39277574649169145     
 H   0.46553381055375032        1.4608946737040374        1.0480193820946795     
           6
 ENERGY=  -34.214887871966170               24
 O    1.0945514544820276        2.0200562886324973       0.54387028873237686     
 O   0.28878548568936985        2.0060017774614902       -2.0899068783930903     
 H   0.12451836993744743        2.9310343883712258       -2.3791332233775511     
 H    1.0846941473687104        1.7259483470761821       -2.5947109938296817     
 H   0.74561176186550682        1.9932683710445753      -0.39287453806909156     
 H   0.46570838901376849        1.4622193970226705        1.0487350894426526     
           6
 ENERGY=  -34.214888359444174               25
 O    1.0943106361746493        2.0201757040248318       0.54327856716101230     
 O   0.28817314683954792        2.0052370692946933       -2.0895818070405254     
 H   0.12437656562916981        2.9306372103715761       -2.3788462932477668     
 H    1.0836501674250951        1.7258054466100317       -2.5955078128317215     
 H   0.74448010569448209        1.9925283778633893      -0.39296105083383259     
 H   0.46595792700222666        1.4625497461253696        1.0491996978138709     
           6
 ENERGY=  -34.214888667925607               26
 O    1.0940144326237558        2.0197988371554589       0.54266182235318805     
 O   0.28758928330616496        2.0047707263418983       -2.0892652055664125     
 H   0.12441428586155943        2.9301255433375220       -2.3783081754626436     
 H    1.0829062169627734        1.7257810265708931       -2.5963749726514558     
 H   0.74276077611506774        1.9915130660474092      -0.39329401695602578     
 H   0.46637178502123411        1.4625199825851252        1.0496660079183857     
           6
 ENERGY=  -34.214889024967569               27
 O    1.0940082222264376        2.0188021733842447       0.54230117333017214     
 O   0.28811084431352341        2.0049837320409325       -2.0892901411894944     
 H   0.12489242658108259        2.9304776241166661       -2.3780382320636497     
 H    1.0836002457076785        1.7263259637877622       -2.5960469594606503     
 H   0.74206641954595698        1.9911867722394829      -0.39342615858141833     
 H   0.46646950830903972        1.4614920448231945        1.0495297640128773     
           6
 ENERGY=  -34.214889237540049               28
 O    1.0943047577132503        2.0118008309037330       0.54090722139469749     
 O   0.29243925611962585        2.0078025705601465       -2.0897180170483911     
 H   0.12858754601394182        2.9336764642699595       -2.3768767558959931     
 H    1.0905233968042842        1.7304198725717757       -2.5925203551294684     
 H   0.73965687017454429        1.9903184789261501      -0.39389386401964160     
 H   0.46672832180653068        1.4539762604796094        1.0475433851372784     
           6
 ENERGY=  -34.214890299063704               29
 O    1.0936966480682790        2.0134649898059980       0.54101578018285779     
 O   0.29033738576338664        2.0064733843168172       -2.0902525276407293     
 H   0.12752512343733916        2.9328599085654057       -2.3765074349415078     
 H    1.0881009908510135        1.7292429776958460       -2.5936756953201252     
 H   0.73948589911495310        1.9892598352040280      -0.39397459772757276     
 H   0.46703026850904261        1.4556564717327083        1.0483682305754936     
           6
 ENERGY=  -34.214892621641873               30
 O    1.0916597322894466        2.0102381475704667       0.53878571358994398     
 O   0.28754490751687600        2.0052995505648514       -2.0934401656159745     
 H   0.12854751333435335        2.9341104030094085       -2.3728256499255314     
 H    1.0883767801088049        1.7302731963511420       -2.5932987917106156     
 H   0.73505307661225228        1.9831160462107160      -0.39493312546363013     
 H   0.46838995909939568        1.4508955568048192        1.0492623106145449     
           6
 ENERGY=  -34.214892403436636               31
 O    1.0884583405596957        2.0089563094852307       0.53707097532532289     
 O   0.28184225476077651        2.0016560458231645       -2.0970063728420354     
 H   0.12803421267737236        2.9349192291369590       -2.3685115986064060     
 H    1.0853132224323883        1.7297193613272668       -2.5945315301463974     
 H   0.73001782339503385        1.9751973011429980      -0.39654302017083848     
 H   0.47050391054827007        1.4483331397631325        1.0511648284364405     
           6
 ENERGY=  -34.214893641560948               32
 O    1.0886058590007763        2.0090253703755701       0.53678332914809901     
 O   0.28198445207419809        2.0020624978714983       -2.0969293157015363     
 H   0.12814510455466840        2.9345726994500456       -2.3685000553863835     
 H    1.0853932733298395        1.7297915527326064       -2.5944911692893400     
 H   0.73012324505387938        1.9753885175616426      -0.39637561212496170     
 H   0.47033661964019535        1.4482071932539888        1.0512166793331965     
           6
 ENERGY=  -34.214894130672519               33
 O    1.0886687459920001        2.0093090733839123       0.53703669857413572     
 O   0.28292197910987160        2.0028379950310029       -2.0955180556996562     
 H   0.12838208689145231        2.9343808562471878       -2.3686977904300113     
 H    1.0856893248681896        1.7301579377955072       -2.5939430074660081     
 H   0.73128634228120581        1.9763609749876634      -0.39647872047576732     
 H   0.47020336867902757        1.4480765245859575        1.0506752536269179     
           6
 ENERGY=  -34.214894186753845               34
 O    1.0887731104058735        2.0097429200260439       0.53710297743630497     
 O   0.28394676840700872        2.0033049529718210       -2.0940566045256417     
 H   0.12853120684291985        2.9345210025574628       -2.3686558385702217     
 H    1.0857731323634605        1.7305386187319616       -2.5932578769779830     
 H   0.73235189063935413        1.9770417738550667      -0.39661546482905691     
 H   0.46999748289949472        1.4475475434720679        1.0501952321200234     
           6
 ENERGY=  -34.214894418061199               35
 O    1.0885976202883263        2.0097926119086567       0.53718515943458489     
 O   0.28361649114594062        2.0032537858753745       -2.0940617267684569     
 H   0.12844225350387989        2.9344623432163619       -2.3684187029539441     
 H    1.0856259475874908        1.7304151004278849       -2.5933681904221992     
 H   0.73223235610060877        1.9767560817317205      -0.39671824584800502     
 H   0.47014293201085505        1.4475628847943636        1.0501866955404773     
           6
 ENERGY=  -34.214894411297557               36
 O    1.0876977937331707        2.0096196689628383       0.53677249657174109     
 O   0.28180905391379013        2.0024030951332152       -2.0950760765236591     
 H   0.12815110061505014        2.9344551779578327       -2.3670413652270015     
 H    1.0846714268931188        1.7300340718833580       -2.5938649620361200     
 H   0.73081837198472765        1.9745344635753883      -0.39708566699019637     
 H   0.47077120329427935        1.4470013387158784        1.0506729728802258     
           6
 ENERGY=  -34.214894663498484               37
 O    1.0880156124014453        2.0098423008565325       0.53704679966354107     
 O   0.28289377426019613        2.0029365423381305       -2.0941184023839758     
 H   0.12824054592814182        2.9345967565719553       -2.3672957773663863     
 H    1.0850398518456135        1.7302577915474366       -2.5933598024038211     
 H   0.73174962581591951        1.9755200647680309      -0.39697268323467344     
 H   0.47055867175292398        1.4468818670050099        1.0501528317283026     
           6
 ENERGY=  -34.214894253367021               38
 O    1.0859317749976891        2.0110032162040969       0.53706547968008334     
 O   0.28240755068288143        2.0031262065060154       -2.0910009736903974     
 H   0.12750521544258436        2.9356683109835013       -2.3620820046814082     
 H    1.0832614583511648        1.7301566632224343       -2.5917224914038512     
 H   0.73236246276759853        1.9722597990108890      -0.39791046529547464     
 H   0.47195771525268526        1.4426910442982719        1.0483560453834515     
           6
 ENERGY=  -34.214894775571985               39
 O    1.0873365747620376        2.0105888780187602       0.53719938629699782     
 O   0.28262025508704591        2.0033324828220342       -2.0927874925882755     
 H   0.12762437033901231        2.9351427825424108       -2.3637431626673293     
 H    1.0841111550365545        1.7299413015842071       -2.5925849532318184     
 H   0.73228164145924857        1.9741074395011784      -0.39695690341180673     
 H   0.47129304436925962        1.4441588534862058        1.0490756980176070     
           6
 ENERGY=  -34.214895152771611               40
 O    1.0871187485511222        2.0102799706797136       0.53702706792119959     
 O   0.28212182139961189        2.0028222297160720       -2.0933380479111441     
 H   0.12767116488696234        2.9351534054301474       -2.3639753129933792     
 H    1.0839680860044132        1.7299378904426039       -2.5928754206211413     
 H   0.73169925204305430        1.9736394762711296      -0.39710010040393251     
 H   0.47139826440963262        1.4444488666087869        1.0494304016332126     
           6
 ENERGY=  -34.214895306027792               41
 O    1.0862521967639178        2.0100473736091655       0.53729757387607235     
 O   0.27932286201297857        2.0012835087862486       -2.0945720546914401     
 H   0.12717616897740555        2.9357193314104197       -2.3599339820864280     
 H    1.0821444501080233        1.7297001787604227       -2.5934679170809569     
 H   0.73028363523388873        1.9712486513347205      -0.39709282929788631     
 H   0.47277871952380257        1.4418407935030335        1.0496667562065325     
           6
 ENERGY=  -34.214895731756449               42
 O    1.0860097758513012        2.0099807007140722       0.53714501045439034     
 O   0.27941616392028229        2.0012191912486550       -2.0940832773585587     
 H   0.12726973175778439        2.9357723956505071       -2.3595361094081477     
 H    1.0819785249909346        1.7299514902556605       -2.5933568500948372     
 H   0.73077760224377364        1.9716098334503858      -0.39674408819632817     
 H   0.47297136186408401        1.4414595395607983        1.0494938266173179     
           6
 ENERGY=  -34.214896007868361               43
 O    1.0859697180908139        2.0101343033269314       0.53743438361027407     
 O   0.27971201497698817        2.0014701838806190       -2.0932222554849154     
 H   0.12736505848728219        2.9357757865633491       -2.3590797591808736     
 H    1.0819087122614748        1.7302147767669485       -2.5930742208654638     
 H   0.73136281165296979        1.9720466215445331      -0.39680605479429276     
 H   0.47308664328396532        1.4409430959576270        1.0491406569730628     
           6
 ENERGY=  -34.214896282974529               44
 O    1.0858721112074252        2.0105929123538502       0.53835782331731863     
 O   0.27967001079296283        2.0014702225465513       -2.0912497109448687     
 H   0.12731621885202499        2.9362892602692585       -2.3559808454062332     
 H    1.0809683394835936        1.7308446404964115       -2.5925622489514608     
 H   0.73259206533587562        1.9725573897912907      -0.39670006378540518     
 H   0.47389366174428388        1.4380979340193081        1.0482782135876541     
           6
 ENERGY=  -34.214896623389222               45
 O    1.0853848012422262        2.0104854153716860       0.53875792022055635     
 O   0.27866310690118096        2.0013162185419300       -2.0908774105882482     
 H   0.12719720420794323        2.9363680469117308       -2.3534389725681102     
 H    1.0801360982311823        1.7310182848651459       -2.5926817215413331     
 H   0.73269504758888859        1.9721138682528248      -0.39645340782576838     
 H   0.47481454600297518        1.4362908513777581        1.0479568135186406     
           6
 ENERGY=  -34.214896758272538               46
 O    1.0852181790002318        2.0104042052805839       0.53888769374123680     
 O   0.27828636892085229        2.0010113254699609       -2.0908863273892275     
 H   0.12710044684213523        2.9365601036058102       -2.3524581047472162     
 H    1.0797039386239111        1.7310795546004882       -2.5927557228028926     
 H   0.73261735547138807        1.9718567838662888      -0.39633304537076613     
 H   0.47518796138414648        1.4355771124284147        1.0479049905331597     
           6
 ENERGY=  -34.214747300811673               47
 O    1.0750157415662169        2.0060189172716592       0.54730076073639533     
 O   0.25438939183310894        1.9839131555422700       -2.0901387138978538     
 H   0.12132585141687159        2.9474224616987885       -2.2904935615235660     
 H    1.0535185835797112        1.7348468181771886       -2.5971980395528513     
 H   0.72869814757956808        1.9563445926675243      -0.38902500588435285     
 H   0.49826042742395210        1.3903624969532766        1.0441528991264133     
           6
 ENERGY=  -34.214896859627302               48
 O    1.0849902305537757        2.0103019038762087       0.53925494272925711     
 O   0.27767356852441044        2.0006266045741743       -2.0906133113668206     
 H   0.12692075639775019        2.9369133733378825       -2.3503452219495022     
 H    1.0788946543297271        1.7312676129525943       -2.5928842112110124     
 H   0.73264908791361982        1.9715336471770659      -0.39606517044335249     
 H   0.47596143462744078        1.4339367613912182        1.0477156979288040     
           6
 ENERGY=  -34.214896716208372               49
 O    1.0853572578143753        2.0104436273267674       0.54013376799027457     
 O   0.27822912077031414        2.0013644183887891       -2.0887828327186466     
 H   0.12685659270751393        2.9371806181866780       -2.3483046666393346     
 H    1.0785935915041500        1.7318211366506528       -2.5928379851339467     
 H   0.73370541823892610        1.9724277840636109      -0.39568566286756496     
 H   0.47668862749893604        1.4318203207401254        1.0471050003983589     
           6
 ENERGY=  -34.214896995085304               50
 O    1.0850780758393568        2.0102525512735472       0.53974307241260699     
 O   0.27772021884480830        2.0008472623032687       -2.0897906474881571     
 H   0.12681596003085768        2.9371581117315442       -2.3487731244775913     
 H    1.0785120045198244        1.7315752271994624       -2.5929905460840192     
 H   0.73308090276762528        1.9718034028668128      -0.39573230622484706     
 H   0.47660263030985467        1.4324839228287665        1.0474171930337581     
           6
 ENERGY=  -34.214897173342997               51
 O    1.0850529785282585        2.0098312662680540       0.54042880375040792     
 O   0.27714520087959871        2.0006083774234962       -2.0893820713323810     
 H   0.12652734891154288        2.9377008489181433       -2.3461148522732072     
 H    1.0775934545855013        1.7320098545123750       -2.5935780750265391     
 H   0.73308538516171895        1.9715498715575546      -0.39512459782979759     
 H   0.47793182126953648        1.4301586404088238        1.0473284313294244     
           6
 ENERGY=  -34.214897299853973               52
 O    1.0853148470495049        2.0097137134715668       0.54049672419700956     
 O   0.27743367634617272        2.0007466771133178       -2.0894040480855645     
 H   0.12652810969929684        2.9377267604630992       -2.3465058077174406     
 H    1.0776982480813326        1.7321702867975493       -2.5937609343946777     
 H   0.73308436412963041        1.9716960555325729      -0.39502492502706099     
 H   0.47797872818175263        1.4302103762257117        1.0475065375320762     
           6
 ENERGY=  -34.214897631855635               53
 O    1.0868617587370166        2.0087765047177029       0.54138450259493609     
 O   0.27912379761709633        2.0018717974711397       -2.0887597117187608     
 H   0.12640113969310429        2.9381438374692985       -2.3472163857234247     
 H    1.0779809376833291        1.7334534275233497       -2.5951155513607138     
 H   0.73348853842291839        1.9727620779646617      -0.39396873186980674     
 H   0.47910999325845693        1.4290647370708618        1.0482737720843922     
           6
 ENERGY=  -34.214897828529004               54
 O    1.0870385240791500        2.0085105983306466       0.54117376330956479     
 O   0.27915490861359343        2.0020804057699944       -2.0894434168980478     
 H   0.12643236177255848        2.9379695834383996       -2.3487906771577434     
 H    1.0785207016025620        1.7334682765193778       -2.5955715531181651     
 H   0.73315886183494905        1.9725578327431912      -0.39392325652703269     
 H   0.47901312651058792        1.4301131846010802        1.0488011658060954     
           6
 ENERGY=  -34.214897987878189               55
 O    1.0873009715696609        2.0080647287080526       0.54133394631029452     
 O   0.27938747421594518        2.0023056514095630       -2.0896168548391123     
 H   0.12629210483552539        2.9382038480282273       -2.3488141551448085     
 H    1.0784751000675983        1.7338399791681609       -2.5961578363268836     
 H   0.73315583418567676        1.9725233304318390      -0.39340233450563755     
 H   0.47965684083226839        1.4296930255166556        1.0491263884738391     
           6
 ENERGY=  -34.214898069678000               56
 O    1.0876269297840975        2.0077423991808652       0.54166492697535762     
 O   0.27971469344251826        2.0026039730962868       -2.0893913578476417     
 H   0.12612542641223221        2.9385097598561907       -2.3483056023289395     
 H    1.0782901233491797        1.7342879504621809       -2.5966120817096190     
 H   0.73338474234278705        1.9726328608741543      -0.39289908615450769     
 H   0.48037005416560374        1.4287701471338456        1.0492930064119204     
           6
 ENERGY=  -34.214898129564794               57
 O    1.0877953870192434        2.0075863387730042       0.54196821884502266     
 O   0.27984919974019701        2.0027975095996968       -2.0892006578318698     
 H   0.12597116398758915        2.9387751045947237       -2.3477960200757861     
 H    1.0781104475890981        1.7345884992255149       -2.5968634406976081     
 H   0.73359556747231680        1.9725954746377226      -0.39264566340554508     
 H   0.48092473063913360        1.4280209583470429        1.0493556408947633     
           6
 ENERGY=  -34.214898313381177               58
 O    1.0886511683382341        2.0068950113169710       0.54351169850626857     
 O   0.28033576961175710        2.0039192833113755       -2.0881534917834248     
 H   0.12509025081853761        2.9402272827619886       -2.3449163664402266     
 H    1.0771307658874196        1.7362309330964936       -2.5982016094983496     
 H   0.73486013782377124        1.9721386176569942      -0.39129406012178319     
 H   0.48398081733398596        1.4237786537593360        1.0497344500087316     
           6
 ENERGY=  -34.214898540680906               59
 O    1.0883698674660678        2.0071690816362970       0.54346627791803259     
 O   0.28008813356008000        2.0038874562781257       -2.0880888367592276     
 H   0.12507022311693478        2.9402564354689136       -2.3449643471039443     
 H    1.0770088110701734        1.7364031208005488       -2.5979038059841977     
 H   0.73517985167550037        1.9716745647838747      -0.39159196762402354     
 H   0.48413151702004731        1.4237371970728459        1.0496042744870531     
           6
 ENERGY=  -34.214898766727835               60
 O    1.0874662998443885        2.0083250605381799       0.54344343099107062     
 O   0.27908521672229825        2.0041039990147391       -2.0876129418651197     
 H   0.12477147426044331        2.9405855499627380       -2.3443849095078222     
 H    1.0764664605946368        1.7372175842861273       -2.5970390677524247     
 H   0.73662557671180928        1.9698509419719463      -0.39239375678776406     
 H   0.48515786688888485        1.4226142503714332        1.0491772384176943     
           6
 ENERGY=  -34.214896047401950               61
 O    1.0887816464778888        2.0065352816886586       0.54578015562664406     
 O   0.27962694010406908        2.0063581907626675       -2.0855332635635273     
 H   0.12351198194862979        2.9425322960937916       -2.3405450754256978     
 H    1.0757654601917852        1.7405562555079437       -2.5999374383442522     
 H   0.73875080702187024        1.9693252315124110      -0.38973172854445226     
 H   0.49104603594013979        1.4163171566938701        1.0492637428639204     
           6
 ENERGY=  -34.214899029839643               62
 O    1.0884579935021197        2.0073825352542194       0.54497511272799226     
 O   0.27957125435923469        2.0053451430545590       -2.0864662643225445     
 H   0.12392633352365064        2.9419591947912878       -2.3416659842796816     
 H    1.0757314895517602        1.7390711605066453       -2.5986952821734106     
 H   0.73782601709892193        1.9695435194813566      -0.39082857977259983     
 H   0.48849155356881563        1.4184088309601341        1.0494733757772483     
           6
 ENERGY=  -34.214899048708368               63
 O    1.0887289112105532        2.0075646246545507       0.54442800842286687     
 O   0.27948072909713978        2.0050067568345411       -2.0869578539664033     
 H   0.12411032062787666        2.9414750088260155       -2.3424003759779604     
 H    1.0761309137541508        1.7388230482252232       -2.5985698131722175     
 H   0.73715024605502977        1.9697675670567183      -0.39112355945491883     
 H   0.48776068926775595        1.4193374330960564        1.0493615974999499     
           6
 ENERGY=  -34.214899148447756               64
 O    1.0887799188144056        2.0074333563682463       0.54476057176327353     
 O   0.27958101866807666        2.0052116742775725       -2.0867092667647631     
 H   0.12389272137554568        2.9418492835913481       -2.3417780535877681     
 H    1.0758649967749987        1.7392331682766933       -2.5987821537324129     
 H   0.73752662188367191        1.9695836423067641      -0.39086016816952995     
 H   0.48853051120846064        1.4184235341954579        1.0493840912149255     
           6
 ENERGY=  -34.214899205996296               65
 O    1.0889603695535697        2.0073439973987677       0.54494787324335958     
 O   0.27962709122216550        2.0053609418930689       -2.0865975082820891     
 H   0.12369693467410693        2.9420734750992859       -2.3413277070965126     
 H    1.0757347421544550        1.7397005674678141       -2.5990021157047196     
 H   0.73772507854453706        1.9694165182014500      -0.39070211413722683     
 H   0.48925246628293284        1.4176694131113339        1.0493323534092107     
